peak_load_40pc.csv
Bus,  V1,  p.u.,Base kV, V2, %V2/V1, V0, %V0/V1, Vresidual, %NEMA
"PPU_DUMA_33KV",    18911.5,   0.99259,    33.00, 9.25438E-006, 4.894E-008, 1.23938E-006, 6.554E-009, 3.71815E-006, 6.556E-009
"PPU_DUMA_11KV",    6369.98,   0.97354,    11.33, 3.31109E-006, 5.198E-008, 1.47936E-008, 2.322E-010, 4.43825E-008, 6.689E-009
"RPPLNGI2",       6337,    0.9685,    11.33, 3.2962E-006, 5.202E-008, 1.53264E-008, 2.419E-010, 4.59817E-008, 6.725E-009
"PDTJLNMASJID",    6312.22,   0.96471,    11.33, 3.28501E-006, 5.204E-008, 1.58646E-008, 2.513E-010, 4.75958E-008, 6.752E-009
"BELLA",    6295.69,   0.96219,    11.33, 3.27755E-006, 5.206E-008, 1.62838E-008, 2.587E-010, 4.88538E-008, 6.77E-009
"PSTPDGN",    6287.42,   0.96092,    11.33, 3.27382E-006, 5.207E-008, 1.651E-008, 2.626E-010, 4.95325E-008, 6.779E-009
"PAMDRA",     6368.6,   0.97333,    11.33, 3.31047E-006, 5.198E-008, 1.48048E-008, 2.325E-010, 4.44167E-008, 6.691E-009
"DUMA4",    6363.59,   0.97256,    11.33, 3.30821E-006, 5.199E-008, 1.54962E-008, 2.435E-010, 4.6491E-008, 6.696E-009
"PLSDRA",    6350.23,   0.97052,    11.33, 3.3022E-006, 5.2E-008, 2.10335E-008, 3.312E-010, 6.31027E-008, 6.711E-009
"SSU_UPTWRES_IR1",    6345.22,   0.96976,    11.33, 3.29994E-006, 5.201E-008, 2.12734E-008, 3.353E-010, 6.38226E-008, 6.717E-009
"ATRIA_1",    6344.43,   0.96964,    11.33, 3.29955E-006, 5.201E-008, 1.51194E-008, 2.383E-010, 4.53601E-008, 6.717E-009
"HAWKER",     6339.1,   0.96882,    11.33, 3.29714E-006, 5.201E-008, 1.65354E-008, 2.608E-010, 4.96085E-008, 6.723E-009
"PRMTE",    6320.55,   0.96598,    11.33, 3.28891E-006, 5.204E-008, 3.54904E-008, 5.615E-010, 1.06473E-007, 6.745E-009
"PRMTA",    6313.42,    0.9649,    11.33, 3.28571E-006, 5.204E-008, 3.58853E-008, 5.684E-010, 1.07658E-007, 6.753E-009
"PMONTB",    6310.36,   0.96443,    11.33, 3.28434E-006, 5.205E-008, 3.79424E-008, 6.013E-010, 1.13829E-007, 6.757E-009
"DUMA7",    6363.22,   0.97251,    11.33, 3.30803E-006, 5.199E-008, 1.48653E-008, 2.336E-010, 4.45976E-008, 6.697E-009
"HAUS",    6357.73,   0.97167,    11.33, 3.30556E-006, 5.199E-008, 1.52724E-008, 2.402E-010, 4.58199E-008, 6.703E-009
"DUMA6",    6348.37,   0.97024,    11.33, 3.30135E-006, 5.2E-008, 1.78489E-008, 2.812E-010, 5.35489E-008, 6.713E-009
"DUMA13",    6350.29,   0.97053,    11.33, 3.30222E-006, 5.2E-008, 1.54998E-008, 2.441E-010, 4.6502E-008, 6.711E-009
"SSU_DUMA5_IM2",    6351.13,   0.97066,    11.33, 3.30259E-006, 5.2E-008, 1.5436E-008, 2.43E-010, 4.63106E-008, 6.71E-009
"PLNGI_B",    6365.69,   0.97288,    11.33, 3.30915E-006, 5.198E-008, 1.48075E-008, 2.326E-010, 4.44241E-008, 6.694E-009
"PLNGI_D",     6365.9,   0.97292,    11.33, 3.30924E-006, 5.198E-008, 1.47742E-008, 2.321E-010, 4.43243E-008, 6.694E-009
"PDTLITRAK",    6328.08,   0.96714,    11.33, 3.29221E-006, 5.203E-008, 1.53664E-008, 2.428E-010, 4.61012E-008, 6.735E-009
"DUMA12",     6311.1,   0.96454,    11.33, 3.28456E-006, 5.204E-008, 1.56981E-008, 2.487E-010, 4.70967E-008, 6.754E-009
"TMNGH4",    6298.42,    0.9626,    11.33, 3.27886E-006, 5.206E-008, 2.02612E-008, 3.217E-010, 6.07856E-008, 6.768E-009
"SSU_TMEGAH3_IR1",    6293.14,    0.9618,    11.33, 3.27649E-006, 5.206E-008, 2.31276E-008, 3.675E-010, 6.9385E-008, 6.774E-009
"TMNGH2",    6289.94,   0.96131,    11.33, 3.27505E-006, 5.207E-008, 2.50524E-008, 3.983E-010, 7.516E-008, 6.778E-009
"SPRK9",    6283.96,   0.96039,    11.33, 3.27231E-006, 5.207E-008, 1.66536E-008, 2.65E-010, 4.9963E-008, 6.784E-009
"BOMBA",    6280.13,   0.95981,    11.33, 3.27059E-006, 5.208E-008, 1.79307E-008, 2.855E-010, 5.37946E-008, 6.788E-009
"SPRK8",    6270.55,   0.95834,    11.33, 3.26628E-006, 5.209E-008, 2.24822E-008, 3.585E-010, 6.7449E-008, 6.799E-009
"SSU_UPTWRES_IM2",    6358.12,   0.97173,    11.33, 3.30573E-006, 5.199E-008, 1.69793E-008, 2.67E-010, 5.09402E-008, 6.702E-009
"MAYBANK",    6352.04,    0.9708,    11.33, 3.30299E-006, 5.2E-008, 1.71603E-008, 2.702E-010, 5.14833E-008, 6.709E-009
"DUMA8",    6351.13,   0.97066,    11.33, 3.30258E-006, 5.2E-008, 1.74612E-008, 2.749E-010, 5.23857E-008, 6.71E-009
"SSU_DSARCNTR_IR1",       6369,   0.97339,    11.33, 3.31064E-006, 5.198E-008, 1.47797E-008, 2.321E-010, 4.43412E-008, 6.69E-009
"DUMA9",    6326.15,   0.96684,    11.33, 3.2913E-006, 5.203E-008, 1.55031E-008, 2.451E-010, 4.65119E-008, 6.737E-009
"DUMA1",    6308.34,   0.96412,    11.33, 3.28326E-006, 5.205E-008, 1.58962E-008, 2.52E-010, 4.76906E-008, 6.756E-009
"ELITE",    6301.98,   0.96315,    11.33, 3.28039E-006, 5.205E-008, 1.60499E-008, 2.547E-010, 4.81519E-008, 6.763E-009
"DUMA10",    6352.83,   0.97092,    11.33, 3.30337E-006, 5.2E-008, 1.49877E-008, 2.359E-010, 4.49649E-008, 6.708E-009
"BALAIPOLIS",    6352.65,   0.97089,    11.33, 3.30328E-006, 5.2E-008, 1.49901E-008, 2.36E-010, 4.49725E-008, 6.708E-009
"SSU_DUMA5_M11KV",          0,         0,    33.00,          0,        0,          0,        0,          0,        0
